Circuit: * C:\Users\SZTYM\Desktop\SPICE_PROJET\Draft1_NouvelleVersion.asc

Direct Newton iteration for .op point succeeded.

Date: Sun May  7 18:04:22 2023
Total elapsed time: 0.122 seconds.

tnom = 27
temp = 27
method = trap
totiter = 22
traniter = 0
tranpoints = 0
accept = 0
rejected = 0
matrix size = 14
fillins = 5
solver = Normal
Avg thread counts: 4.0/0.0/4.0/1.3
Matrix Compiler1:      38 opcodes
Matrix Compiler2: 1.18 KB object code size
