Circuit: * C:\Users\SZTYM\Desktop\SPICE_PROJET\Draft1.asc

Direct Newton iteration for .op point succeeded.

Date: Thu May 11 14:27:17 2023
Total elapsed time: 0.088 seconds.

tnom = 27
temp = 27
method = trap
totiter = 22
traniter = 0
tranpoints = 0
accept = 0
rejected = 0
matrix size = 13
fillins = 6
solver = Normal
Avg thread counts: 4.0/0.0/4.0/1.9
Matrix Compiler1:      37 opcodes
Matrix Compiler2: 1.08 KB object code size
